Version 4
SHEET 1 988 1056
WIRE -1648 -592 -1648 -656
WIRE -1312 -592 -1312 -640
WIRE -1120 -592 -1120 -640
WIRE -1648 -480 -1648 -512
WIRE -1312 -480 -1312 -512
WIRE -1120 -480 -1120 -512
WIRE 224 -448 96 -448
WIRE 16 -336 16 -448
WIRE 16 -336 -208 -336
WIRE 96 -336 16 -336
WIRE 224 -320 224 -448
WIRE 224 -320 160 -320
WIRE 384 -320 224 -320
WIRE 96 -304 64 -304
WIRE 64 -272 64 -304
WIRE -1072 -160 -1168 -160
WIRE -592 -160 -1072 -160
WIRE -1232 -144 -1296 -144
WIRE -1296 -16 -1296 -144
WIRE -1072 -16 -1072 -160
WIRE -1072 -16 -1296 -16
WIRE -1072 32 -1072 -16
WIRE -592 160 -592 -160
WIRE 608 208 480 208
WIRE -1072 224 -1072 112
WIRE -944 224 -1072 224
WIRE -800 224 -864 224
WIRE -800 256 -800 224
WIRE -592 320 -592 240
WIRE -208 320 -208 -336
WIRE -208 320 -592 320
WIRE 416 320 416 208
WIRE 416 320 400 320
WIRE 496 320 416 320
WIRE 608 336 608 208
WIRE 608 336 560 336
WIRE 784 336 608 336
WIRE 496 352 464 352
WIRE 464 384 464 352
WIRE -800 416 -800 336
WIRE -592 432 -592 320
WIRE -1072 528 -1072 224
WIRE -1072 528 -1360 528
WIRE 624 704 496 704
WIRE 416 800 416 704
WIRE 416 800 400 800
WIRE 496 800 416 800
WIRE 624 816 624 704
WIRE 624 816 560 816
WIRE 784 816 784 336
WIRE 784 816 624 816
WIRE 496 832 464 832
WIRE 464 864 464 832
WIRE -1264 880 -1312 880
WIRE -1312 912 -1312 880
WIRE -1264 912 -1264 880
WIRE -1248 912 -1264 912
WIRE -800 928 -800 496
WIRE -800 928 -1184 928
WIRE -592 928 -592 512
WIRE -592 928 -800 928
WIRE -1360 944 -1360 528
WIRE -1248 944 -1360 944
FLAG 64 -272 0
FLAG 464 384 0
FLAG 464 864 0
FLAG -1648 -480 0
FLAG 944 336 Vout
FLAG -1648 -656 Vin
FLAG -1312 -480 0
FLAG -1120 -480 0
FLAG -1312 -640 +12V
FLAG -1120 -640 -12V
FLAG 128 -352 +12V
FLAG 528 304 +12V
FLAG 528 368 -12V
FLAG 128 -288 -12V
FLAG 528 848 -12V
FLAG 528 784 +12V
FLAG -1200 -192 +12V
FLAG -1216 896 +12V
FLAG -1200 -128 -12V
FLAG -1216 960 -12V
FLAG -1232 -176 Vin
FLAG -1312 912 0
FLAG 384 -320 Vemf
SYMBOL Opamps\\UniversalOpamp2 128 -320 R0
SYMATTR InstName U1
SYMBOL Opamps\\UniversalOpamp2 528 336 R0
SYMATTR InstName U2
SYMBOL Opamps\\UniversalOpamp2 528 816 R0
SYMATTR InstName U3
SYMBOL res 416 304 R90
WINDOW 0 0 56 VBottom 2
WINDOW 3 32 56 VTop 2
SYMATTR InstName R2
SYMATTR Value 250k
SYMBOL res 112 -464 R90
WINDOW 0 0 56 VBottom 2
WINDOW 3 32 56 VTop 2
SYMATTR InstName R3
SYMATTR Value 100K
SYMBOL cap 400 784 R90
WINDOW 0 0 32 VBottom 2
WINDOW 3 32 32 VTop 2
SYMATTR InstName C1
SYMATTR Value 1000n
SYMBOL cap 480 192 R90
WINDOW 0 0 32 VBottom 2
WINDOW 3 32 32 VTop 2
SYMATTR InstName C3
SYMATTR Value 0.001
SYMBOL res 512 688 R90
WINDOW 0 0 56 VBottom 2
WINDOW 3 32 56 VTop 2
SYMATTR InstName R4
SYMATTR Value 3k
SYMBOL voltage -1648 -608 R0
WINDOW 0 39 44 Left 2
WINDOW 3 -79 56 Left 2
WINDOW 123 0 0 Left 0
WINDOW 39 0 0 Left 0
SYMATTR InstName V7
SYMATTR Value 9v
SYMBOL Opamps\\UniversalOpamp2 -1200 -160 R0
SYMATTR InstName U4
SYMBOL Opamps\\UniversalOpamp2 -1216 928 R0
SYMATTR InstName U5
SYMBOL voltage -1312 -608 R0
WINDOW 123 0 0 Left 0
WINDOW 39 0 0 Left 0
SYMATTR InstName V6
SYMATTR Value 12V
SYMBOL voltage -1120 -608 R0
WINDOW 123 0 0 Left 0
WINDOW 39 0 0 Left 0
SYMATTR InstName V8
SYMATTR Value -12V
SYMBOL res -608 144 R0
SYMATTR InstName R5
SYMATTR Value 100K
SYMBOL res -608 416 R0
SYMATTR InstName R6
SYMATTR Value 100K
SYMBOL ind -816 240 R0
SYMATTR InstName L1
SYMATTR Value 8
SYMBOL res -848 208 R90
WINDOW 0 0 56 VBottom 2
WINDOW 3 32 56 VTop 2
SYMATTR InstName R7
SYMATTR Value 25
SYMBOL voltage -800 400 R0
WINDOW 123 0 0 Left 0
WINDOW 39 0 0 Left 0
SYMATTR InstName V1
SYMATTR Value 0.5V
SYMBOL res -1088 16 R0
SYMATTR InstName R8
SYMATTR Value 24
TEXT -408 400 Left 2 !.tran 200u
TEXT -112 -168 Left 2 ;Proportional
TEXT 288 488 Left 2 ;Integral
TEXT 288 984 Left 2 ;Differential
RECTANGLE Normal 304 -144 -128 -608 2
RECTANGLE Normal 704 1008 272 544 2
