Version 4
SHEET 1 988 1060
WIRE -1648 -592 -1648 -656
WIRE -1312 -592 -1312 -640
WIRE -1120 -592 -1120 -640
WIRE -1648 -480 -1648 -512
WIRE -1312 -480 -1312 -512
WIRE -1120 -480 -1120 -512
WIRE 224 -448 96 -448
WIRE 16 -336 16 -448
WIRE 16 -336 -208 -336
WIRE 96 -336 16 -336
WIRE 224 -320 224 -448
WIRE 224 -320 160 -320
WIRE 384 -320 224 -320
WIRE 96 -304 64 -304
WIRE 64 -272 64 -304
WIRE -1072 -160 -1168 -160
WIRE -432 -160 -1072 -160
WIRE -1232 -144 -1296 -144
WIRE -624 -48 -928 -48
WIRE -1296 -16 -1296 -144
WIRE -1072 -16 -1072 -160
WIRE -1072 -16 -1296 -16
WIRE -928 16 -928 -48
WIRE -624 16 -624 -48
WIRE -1072 32 -1072 -16
WIRE -624 160 -624 96
WIRE -432 176 -432 -160
WIRE 608 208 480 208
WIRE -1072 224 -1072 112
WIRE -1024 224 -1072 224
WIRE -896 224 -944 224
WIRE -896 256 -896 224
WIRE -624 272 -624 240
WIRE -432 320 -432 256
WIRE -208 320 -208 -336
WIRE -208 320 -432 320
WIRE 416 320 416 208
WIRE 416 320 400 320
WIRE 496 320 416 320
WIRE 608 336 608 208
WIRE 608 336 560 336
WIRE 784 336 608 336
WIRE 496 352 464 352
WIRE -624 384 -624 352
WIRE 464 384 464 352
WIRE -896 416 -896 336
WIRE -432 464 -432 320
WIRE -1072 528 -1072 224
WIRE -1072 528 -1360 528
WIRE -896 592 -896 496
WIRE 624 704 496 704
WIRE 416 800 416 704
WIRE 416 800 400 800
WIRE 496 800 416 800
WIRE 624 816 624 704
WIRE 624 816 560 816
WIRE 784 816 784 336
WIRE 784 816 624 816
WIRE 496 832 464 832
WIRE 464 864 464 832
WIRE -1360 912 -1360 528
WIRE -1248 912 -1360 912
WIRE -896 928 -896 672
WIRE -896 928 -1184 928
WIRE -432 928 -432 544
WIRE -432 928 -896 928
WIRE -1248 944 -1296 944
WIRE -1296 992 -1296 944
FLAG 64 -272 0
FLAG 464 384 0
FLAG 464 864 0
FLAG -1648 -480 0
FLAG 784 336 Vout
FLAG -1648 -656 Vin
FLAG -1312 -480 0
FLAG -1120 -480 0
FLAG -1312 -640 +12V
FLAG -1120 -640 -12V
FLAG 128 -352 +12V
FLAG 528 304 +12V
FLAG 528 368 -12V
FLAG 128 -288 -12V
FLAG 528 848 -12V
FLAG 528 784 +12V
FLAG -1200 -192 +12V
FLAG -1216 896 +12V
FLAG -1200 -128 -12V
FLAG -1216 960 -12V
FLAG -1232 -176 Vin
FLAG -1296 992 0
FLAG 384 -320 Vemf
FLAG -928 96 0
FL